Version,
 9.5.0;                    !- version identifier

!-   ==========================================
!-   =========  SIMULATION PARAMETERS =========
!-   ==========================================


OutputControl:Table:Style,
 CommaAndHTML,             !- column separator
 None;                     !- unit conversion

Output:Variable,
 *,                        !- key value
 AFN Zone Infiltration Sensible Heat Gain Energy, !- name
 Monthly;                  !- frequency

Output:Variable,
 *,                        !- key value
 AFN Zone Infiltration Sensible Heat Loss Energy, !- name
 Monthly;                  !- frequency

Output:Variable,
 *,                        !- key value
 Surface Average Face Conduction Heat Transfer Energy, !- name
 Monthly;                  !- frequency

Output:Variable,
 *,                        !- key value
 Surface Window Heat Gain Energy, !- name
 Monthly;                  !- frequency

Output:Variable,
 *,                        !- key value
 Surface Window Heat Loss Energy, !- name
 Monthly;                  !- frequency

Output:Variable,
 *,                        !- key value
 Water Use Equipment Heating Energy, !- name
 Monthly;                  !- frequency

Output:Variable,
 *,                        !- key value
 Water Use Equipment Zone Latent Gain Energy, !- name
 Monthly;                  !- frequency

Output:Variable,
 *,                        !- key value
 Water Use Equipment Zone Sensible Heat Gain Energy, !- name
 Monthly;                  !- frequency

Output:Variable,
 *,                        !- key value
 Zone Electric Equipment Electricity Energy, !- name
 Monthly;                  !- frequency

Output:Variable,
 *,                        !- key value
 Zone Electric Equipment Total Heating Energy, !- name
 Monthly;                  !- frequency

Output:Variable,
 *,                        !- key value
 Zone Gas Equipment NaturalGas Energy, !- name
 Monthly;                  !- frequency

Output:Variable,
 *,                        !- key value
 Zone Gas Equipment Total Heating Energy, !- name
 Monthly;                  !- frequency

Output:Variable,
 *,                        !- key value
 Zone Ideal Loads Supply Air Total Cooling Energy, !- name
 Monthly;                  !- frequency

Output:Variable,
 *,                        !- key value
 Zone Ideal Loads Supply Air Total Heating Energy, !- name
 Monthly;                  !- frequency

Output:Variable,
 *,                        !- key value
 Zone Ideal Loads Zone Total Cooling Energy, !- name
 Monthly;                  !- frequency

Output:Variable,
 *,                        !- key value
 Zone Ideal Loads Zone Total Heating Energy, !- name
 Monthly;                  !- frequency

Output:Variable,
 *,                        !- key value
 Zone Infiltration Total Heat Gain Energy, !- name
 Monthly;                  !- frequency

Output:Variable,
 *,                        !- key value
 Zone Infiltration Total Heat Loss Energy, !- name
 Monthly;                  !- frequency

Output:Variable,
 *,                        !- key value
 Zone Lights Electricity Energy, !- name
 Monthly;                  !- frequency

Output:Variable,
 *,                        !- key value
 Zone People Total Heating Energy, !- name
 Monthly;                  !- frequency

Output:Variable,
 *,                        !- key value
 Zone Ventilation Fan Electricity Energy, !- name
 Monthly;                  !- frequency

Output:Variable,
 *,                        !- key value
 Zone Ventilation Total Heat Gain Energy, !- name
 Monthly;                  !- frequency

Output:Variable,
 *,                        !- key value
 Zone Ventilation Total Heat Loss Energy, !- name
 Monthly;                  !- frequency

Output:Variable,
 *,                        !- key value
 Zone Windows Total Transmitted Solar Radiation Energy, !- name
 Monthly;                  !- frequency

Output:Table:SummaryReports,
 AllSummary;               !- report 0

Output:SQLite,
 SimpleAndTabular;         !- option type

Output:VariableDictionary,
 IDF,                      !- key field
 Unsorted;                 !- sort option

Output:Surfaces:List,
 Details;                  !- report type

SimulationControl,
 Yes,                      !- do zone sizing
 Yes,                      !- do system sizing
 Yes,                      !- do plant sizing
 No,                       !- run for sizing periods
 Yes;                      !- run for run periods

ShadowCalculation,
 PolygonClipping,          !- calculation method
 Periodic,                 !- calculation update method
 30,                       !- calculation frequency
 15000;                    !- maximum figures

Timestep,
 4;                        !- timesteps per hour

RunPeriod,
 CustomRunPeriod,          !- name
 1,                        !- start month
 1,                        !- start day
 2017,                     !- start year
 12,                       !- end month
 31,                       !- end day
 2017,                     !- end year
 Sunday,                   !- start day of week
 Yes,                      !- use weather file holidays
 Yes;                      !- use weather file daylight savings

SizingPeriod:DesignDay,
  Boston Logan IntL Arpt Ann Htg 99.6% Condns DB,              !- Name
  1,                                                           !- Month
  21,                                                          !- Day of Month
  WinterDesignDay,                                             !- Day Type
  -13.6,                                                       !- Max Dry-Bulb Temp {C}
  0.0,                                                         !- Daily Dry-Bulb Temp Range {C}
  DefaultMultipliers,                                          !- Dry-Bulb Temp Range Modifier Type
  ,                                                            !- Dry-Bulb Temp Range Modifier Schedule Name
  Wetbulb,                                                     !- Humidity Condition Type
  -13.6,                                                       !- Wetbulb/Dewpoint at Max Dry-Bulb {C}
  ,                                                            !- Humidity Indicating Day Schedule Name
  ,                                                            !- Humidity Ratio at Maximum Dry-Bulb {kgWater/kgDryAir}
  ,                                                            !- Enthalpy at Maximum Dry-Bulb {J/kg}
  ,                                                            !- Daily Wet-Bulb Temperature Range {deltaC}
  101253.0,                                                    !- Barometric Pressure {Pa}
  7.2,                                                         !- Wind Speed {m/s}
  320.0,                                                       !- Wind Direction {Degrees; N=0, S=180}
  No,                                                          !- Rain {Yes/No}
  No,                                                          !- Snow on ground {Yes/No}
  No,                                                          !- Daylight Savings Time Indicator {Yes/No}
  ASHRAEClearSky,                                              !- Solar Model Indicator
  ,                                                            !- Beam Solar Day Schedule Name
  ,                                                            !- Diffuse Solar Day Schedule Name
  ,                                                            !- ASHRAE Clear Sky Beam Optical Depth (taub)
  ,                                                            !- ASHRAE Clear Sky Diffuse Optical Depth (taud)
  0.0;                                                         !- Clearness (0.0 to 1.2)



SizingPeriod:DesignDay,
  Boston Logan IntL Arpt Ann Hum_n 99.6% Condns DP=>MCDB,      !- Name
  1,                                                           !- Month
  21,                                                          !- Day of Month
  WinterDesignDay,                                             !- Day Type
  -12.0,                                                       !- Max Dry-Bulb Temp {C}
  0.0,                                                         !- Daily Dry-Bulb Temp Range {C}
  DefaultMultipliers,                                          !- Dry-Bulb Temp Range Modifier Type
  ,                                                            !- Dry-Bulb Temp Range Modifier Schedule Name
  Dewpoint,                                                    !- Humidity Condition Type
  -24.4,                                                       !- Wetbulb/Dewpoint at Max Dry-Bulb {C}
  ,                                                            !- Humidity Indicating Day Schedule Name
  ,                                                            !- Humidity Ratio at Maximum Dry-Bulb {kgWater/kgDryAir}
  ,                                                            !- Enthalpy at Maximum Dry-Bulb {J/kg}
  ,                                                            !- Daily Wet-Bulb Temperature Range {deltaC}
  101253.0,                                                    !- Barometric Pressure {Pa}
  7.2,                                                         !- Wind Speed {m/s}
  320.0,                                                       !- Wind Direction {Degrees; N=0, S=180}
  No,                                                          !- Rain {Yes/No}
  No,                                                          !- Snow on ground {Yes/No}
  No,                                                          !- Daylight Savings Time Indicator {Yes/No}
  ASHRAEClearSky,                                              !- Solar Model Indicator
  ,                                                            !- Beam Solar Day Schedule Name
  ,                                                            !- Diffuse Solar Day Schedule Name
  ,                                                            !- ASHRAE Clear Sky Beam Optical Depth (taub)
  ,                                                            !- ASHRAE Clear Sky Diffuse Optical Depth (taud)
  0.0;                                                         !- Clearness (0.0 to 1.2)



SizingPeriod:DesignDay,
  Boston Logan IntL Arpt Ann Htg Wind 99.6% Condns WS=>MCDB,   !- Name
  1,                                                           !- Month
  21,                                                          !- Day of Month
  WinterDesignDay,                                             !- Day Type
  2.1,                                                         !- Max Dry-Bulb Temp {C}
  0.0,                                                         !- Daily Dry-Bulb Temp Range {C}
  DefaultMultipliers,                                          !- Dry-Bulb Temp Range Modifier Type
  ,                                                            !- Dry-Bulb Temp Range Modifier Schedule Name
  Wetbulb,                                                     !- Humidity Condition Type
  2.1,                                                         !- Wetbulb/Dewpoint at Max Dry-Bulb {C}
  ,                                                            !- Humidity Indicating Day Schedule Name
  ,                                                            !- Humidity Ratio at Maximum Dry-Bulb {kgWater/kgDryAir}
  ,                                                            !- Enthalpy at Maximum Dry-Bulb {J/kg}
  ,                                                            !- Daily Wet-Bulb Temperature Range {deltaC}
  101253.0,                                                    !- Barometric Pressure {Pa}
  14.1,                                                        !- Wind Speed {m/s}
  320.0,                                                       !- Wind Direction {Degrees; N=0, S=180}
  No,                                                          !- Rain {Yes/No}
  No,                                                          !- Snow on ground {Yes/No}
  No,                                                          !- Daylight Savings Time Indicator {Yes/No}
  ASHRAEClearSky,                                              !- Solar Model Indicator
  ,                                                            !- Beam Solar Day Schedule Name
  ,                                                            !- Diffuse Solar Day Schedule Name
  ,                                                            !- ASHRAE Clear Sky Beam Optical Depth (taub)
  ,                                                            !- ASHRAE Clear Sky Diffuse Optical Depth (taud)
  0.0;                                                         !- Clearness (0.0 to 1.2)



SizingPeriod:DesignDay,
  Boston Logan IntL Arpt Ann Clg .4% Condns DB=>MWB,           !- Name
  7,                                                           !- Month
  21,                                                          !- Day of Month
  SummerDesignDay,                                             !- Day Type
  32.7,                                                        !- Max Dry-Bulb Temp {C}
  8.4,                                                         !- Daily Dry-Bulb Temp Range {C}
  DefaultMultipliers,                                          !- Dry-Bulb Temp Range Modifier Type
  ,                                                            !- Dry-Bulb Temp Range Modifier Schedule Name
  Wetbulb,                                                     !- Humidity Condition Type
  22.9,                                                        !- Wetbulb/Dewpoint at Max Dry-Bulb {C}
  ,                                                            !- Humidity Indicating Day Schedule Name
  ,                                                            !- Humidity Ratio at Maximum Dry-Bulb {kgWater/kgDryAir}
  ,                                                            !- Enthalpy at Maximum Dry-Bulb {J/kg}
  ,                                                            !- Daily Wet-Bulb Temperature Range {deltaC}
  101253.0,                                                    !- Barometric Pressure {Pa}
  6.3,                                                         !- Wind Speed {m/s}
  270.0,                                                       !- Wind Direction {Degrees; N=0, S=180}
  No,                                                          !- Rain {Yes/No}
  No,                                                          !- Snow on ground {Yes/No}
  No,                                                          !- Daylight Savings Time Indicator {Yes/No}
  ASHRAETau,                                                   !- Solar Model Indicator
  ,                                                            !- Beam Solar Day Schedule Name
  ,                                                            !- Diffuse Solar Day Schedule Name
  0.488,                                                       !- ASHRAE Clear Sky Beam Optical Depth (taub)
  1.95;                                                        !- ASHRAE Clear Sky Diffuse Optical Depth (taud)



SizingPeriod:DesignDay,
  Boston Logan IntL Arpt Ann Clg .4% Condns WB=>MDB,           !- Name
  7,                                                           !- Month
  21,                                                          !- Day of Month
  SummerDesignDay,                                             !- Day Type
  30.2,                                                        !- Max Dry-Bulb Temp {C}
  8.4,                                                         !- Daily Dry-Bulb Temp Range {C}
  DefaultMultipliers,                                          !- Dry-Bulb Temp Range Modifier Type
  ,                                                            !- Dry-Bulb Temp Range Modifier Schedule Name
  Wetbulb,                                                     !- Humidity Condition Type
  24.6,                                                        !- Wetbulb/Dewpoint at Max Dry-Bulb {C}
  ,                                                            !- Humidity Indicating Day Schedule Name
  ,                                                            !- Humidity Ratio at Maximum Dry-Bulb {kgWater/kgDryAir}
  ,                                                            !- Enthalpy at Maximum Dry-Bulb {J/kg}
  ,                                                            !- Daily Wet-Bulb Temperature Range {deltaC}
  101253.0,                                                    !- Barometric Pressure {Pa}
  6.3,                                                         !- Wind Speed {m/s}
  270.0,                                                       !- Wind Direction {Degrees; N=0, S=180}
  No,                                                          !- Rain {Yes/No}
  No,                                                          !- Snow on ground {Yes/No}
  No,                                                          !- Daylight Savings Time Indicator {Yes/No}
  ASHRAETau,                                                   !- Solar Model Indicator
  ,                                                            !- Beam Solar Day Schedule Name
  ,                                                            !- Diffuse Solar Day Schedule Name
  0.488,                                                       !- ASHRAE Clear Sky Beam Optical Depth (taub)
  1.95;                                                        !- ASHRAE Clear Sky Diffuse Optical Depth (taud)



SizingPeriod:DesignDay,
  Boston Logan IntL Arpt Ann Clg .4% Condns DP=>MDB,           !- Name
  7,                                                           !- Month
  21,                                                          !- Day of Month
  SummerDesignDay,                                             !- Day Type
  27.3,                                                        !- Max Dry-Bulb Temp {C}
  8.4,                                                         !- Daily Dry-Bulb Temp Range {C}
  DefaultMultipliers,                                          !- Dry-Bulb Temp Range Modifier Type
  ,                                                            !- Dry-Bulb Temp Range Modifier Schedule Name
  Dewpoint,                                                    !- Humidity Condition Type
  22.8,                                                        !- Wetbulb/Dewpoint at Max Dry-Bulb {C}
  ,                                                            !- Humidity Indicating Day Schedule Name
  ,                                                            !- Humidity Ratio at Maximum Dry-Bulb {kgWater/kgDryAir}
  ,                                                            !- Enthalpy at Maximum Dry-Bulb {J/kg}
  ,                                                            !- Daily Wet-Bulb Temperature Range {deltaC}
  101253.0,                                                    !- Barometric Pressure {Pa}
  6.3,                                                         !- Wind Speed {m/s}
  270.0,                                                       !- Wind Direction {Degrees; N=0, S=180}
  No,                                                          !- Rain {Yes/No}
  No,                                                          !- Snow on ground {Yes/No}
  No,                                                          !- Daylight Savings Time Indicator {Yes/No}
  ASHRAETau,                                                   !- Solar Model Indicator
  ,                                                            !- Beam Solar Day Schedule Name
  ,                                                            !- Diffuse Solar Day Schedule Name
  0.488,                                                       !- ASHRAE Clear Sky Beam Optical Depth (taub)
  1.95;                                                        !- ASHRAE Clear Sky Diffuse Optical Depth (taud)



SizingPeriod:DesignDay,
  Boston Logan IntL Arpt Ann Clg .4% Condns Enth=>MDB,         !- Name
  7,                                                           !- Month
  21,                                                          !- Day of Month
  SummerDesignDay,                                             !- Day Type
  30.6,                                                        !- Max Dry-Bulb Temp {C}
  8.4,                                                         !- Daily Dry-Bulb Temp Range {C}
  DefaultMultipliers,                                          !- Dry-Bulb Temp Range Modifier Type
  ,                                                            !- Dry-Bulb Temp Range Modifier Schedule Name
  Enthalpy,                                                    !- Humidity Condition Type
  ,                                                            !- Wetbulb/Dewpoint at Max Dry-Bulb {C}
  ,                                                            !- Humidity Indicating Day Schedule Name
  ,                                                            !- Humidity Ratio at Maximum Dry-Bulb {kgWater/kgDryAir}
  74100.0,                                                     !- Enthalpy at Maximum Dry-Bulb {J/kg}
  ,                                                            !- Daily Wet-Bulb Temperature Range {deltaC}
  101253.0,                                                    !- Barometric Pressure {Pa}
  6.3,                                                         !- Wind Speed {m/s}
  270.0,                                                       !- Wind Direction {Degrees; N=0, S=180}
  No,                                                          !- Rain {Yes/No}
  No,                                                          !- Snow on ground {Yes/No}
  No,                                                          !- Daylight Savings Time Indicator {Yes/No}
  ASHRAETau,                                                   !- Solar Model Indicator
  ,                                                            !- Beam Solar Day Schedule Name
  ,                                                            !- Diffuse Solar Day Schedule Name
  0.488,                                                       !- ASHRAE Clear Sky Beam Optical Depth (taub)
  1.95;                                                        !- ASHRAE Clear Sky Diffuse Optical Depth (taud)



Sizing:Parameters,
 1.25,                     !- heating factor
 1.15;                     !- cooling factor

GlobalGeometryRules,
 UpperLeftCorner,          !- starting vertex position
 Counterclockwise,         !- vertex entry direction
 Relative;                 !- coordinate system

Building,
 Building,                 !- name
 0.0,                      !- clockwise north axis
 City,                     !- terrain
 ,                         !- loads convergence tolerance
 ,                         !- temperature convergence tolerance
 FullExterior;             !- solar distribution

Site:WaterMainsTemperature,
 CorrelationFromWeatherFile; !- ,

!-   =======================================
!-   ================ MODEL ================
!-   =======================================


!-   ========= SCHEDULE TYPE LIMITS =========


ScheduleTypeLimits,
 Temperature,              !- name
 -273.15,                  !- lower limit value
 ,                         !- upper limit value
 Continuous,               !- numeric type
 Temperature;              !- unit type

ScheduleTypeLimits,
 Activity Level,           !- name
 0.0,                      !- lower limit value
 ,                         !- upper limit value
 Continuous,               !- numeric type
 ActivityLevel;            !- unit type

ScheduleTypeLimits,
 Fractional,               !- name
 0.0,                      !- lower limit value
 1.0,                      !- upper limit value
 Continuous,               !- numeric type
 Dimensionless;            !- unit type

!-   ============== SCHEDULES ==============


Schedule:Year,
 Hospital BLDG_EQUIP_SCH,  !- schedule name
 Fractional,               !- schedule type limits
 Hospital BLDG_EQUIP_SCH_Week 1, !- week schedule name 1
 1,                        !- start month 1
 1,                        !- start day 1
 12,                       !- end month 1
 31;                       !- end day 1

Schedule:Week:Daily,
 Hospital BLDG_EQUIP_SCH_Week 1, !- name
 Hospital BLDG_EQUIP_SCH_Default, !- sunday
 Hospital BLDG_EQUIP_SCH_Wkdy, !- monday
 Hospital BLDG_EQUIP_SCH_Wkdy, !- tuesday
 Hospital BLDG_EQUIP_SCH_Wkdy, !- wednesday
 Hospital BLDG_EQUIP_SCH_Wkdy, !- thursday
 Hospital BLDG_EQUIP_SCH_Wkdy, !- friday
 Hospital BLDG_EQUIP_SCH_Sat, !- saturday
 Hospital BLDG_EQUIP_SCH_Default, !- holiday
 Hospital BLDG_EQUIP_SCH_SmrDsn, !- summer design day
 Hospital BLDG_EQUIP_SCH_WntrDsn, !- winter design day
 Hospital BLDG_EQUIP_SCH_Default, !- custom day 1
 Hospital BLDG_EQUIP_SCH_Default; !- custom day 2

Schedule:Day:Interval,
 Hospital BLDG_EQUIP_SCH_Default, !- schedule name
 Fractional,               !- schedule type limits
 No,                       !- interpolate to timestep
 08:00,                    !- time 1 {hh:mm}
 0.2619511698,             !- value until time 1
 16:00,                    !- time 2 {hh:mm}
 0.3492682264,             !- value until time 2
 24:00,                    !- time 3 {hh:mm}
 0.2619511698;             !- value until time 3

Schedule:Day:Interval,
 Hospital BLDG_EQUIP_SCH_SmrDsn, !- schedule name
 Fractional,               !- schedule type limits
 No,                       !- interpolate to timestep
 24:00,                    !- time 1 {hh:mm}
 1.0;                      !- value until time 1

Schedule:Day:Interval,
 Hospital BLDG_EQUIP_SCH_WntrDsn, !- schedule name
 Fractional,               !- schedule type limits
 No,                       !- interpolate to timestep
 24:00,                    !- time 1 {hh:mm}
 0.0;                      !- value until time 1

Schedule:Day:Interval,
 Hospital BLDG_EQUIP_SCH_Sat, !- schedule name
 Fractional,               !- schedule type limits
 No,                       !- interpolate to timestep
 07:00,                    !- time 1 {hh:mm}
 0.3492682264,             !- value until time 1
 08:00,                    !- time 2 {hh:mm}
 0.4870009145,             !- value until time 2
 18:00,                    !- time 3 {hh:mm}
 0.63310118885,            !- value until time 3
 24:00,                    !- time 4 {hh:mm}
 0.3492682264;             !- value until time 4

Schedule:Day:Interval,
 Hospital BLDG_EQUIP_SCH_Wkdy, !- schedule name
 Fractional,               !- schedule type limits
 No,                       !- interpolate to timestep
 07:00,                    !- time 1 {hh:mm}
 0.3492682264,             !- value until time 1
 08:00,                    !- time 2 {hh:mm}
 0.6818012803,             !- value until time 2
 16:00,                    !- time 3 {hh:mm}
 0.8766016461,             !- value until time 3
 22:00,                    !- time 4 {hh:mm}
 0.584401097,              !- value until time 4
 23:00,                    !- time 5 {hh:mm}
 0.5239023396,             !- value until time 5
 24:00,                    !- time 6 {hh:mm}
 0.3492682264;             !- value until time 6

Schedule:Year,
 Hospital BLDG_OCC_SCH,    !- schedule name
 Fractional,               !- schedule type limits
 Hospital BLDG_OCC_SCH_Week 1, !- week schedule name 1
 1,                        !- start month 1
 1,                        !- start day 1
 12,                       !- end month 1
 31;                       !- end day 1

Schedule:Week:Daily,
 Hospital BLDG_OCC_SCH_Week 1, !- name
 Hospital BLDG_OCC_SCH_Default, !- sunday
 Hospital BLDG_OCC_SCH_Wkdy, !- monday
 Hospital BLDG_OCC_SCH_Wkdy, !- tuesday
 Hospital BLDG_OCC_SCH_Wkdy, !- wednesday
 Hospital BLDG_OCC_SCH_Wkdy, !- thursday
 Hospital BLDG_OCC_SCH_Wkdy, !- friday
 Hospital BLDG_OCC_SCH_Sat, !- saturday
 Hospital BLDG_OCC_SCH_Default, !- holiday
 Hospital BLDG_OCC_SCH_SmrDsn, !- summer design day
 Hospital BLDG_OCC_SCH_WntrDsn, !- winter design day
 Hospital BLDG_OCC_SCH_Default, !- custom day 1
 Hospital BLDG_OCC_SCH_Default; !- custom day 2

Schedule:Day:Interval,
 Hospital BLDG_OCC_SCH_Default, !- schedule name
 Fractional,               !- schedule type limits
 No,                       !- interpolate to timestep
 08:00,                    !- time 1 {hh:mm}
 0.0,                      !- value until time 1
 16:00,                    !- time 2 {hh:mm}
 0.05,                     !- value until time 2
 24:00,                    !- time 3 {hh:mm}
 0.0;                      !- value until time 3

Schedule:Day:Interval,
 Hospital BLDG_OCC_SCH_SmrDsn, !- schedule name
 Fractional,               !- schedule type limits
 No,                       !- interpolate to timestep
 24:00,                    !- time 1 {hh:mm}
 1.0;                      !- value until time 1

Schedule:Day:Interval,
 Hospital BLDG_OCC_SCH_WntrDsn, !- schedule name
 Fractional,               !- schedule type limits
 No,                       !- interpolate to timestep
 24:00,                    !- time 1 {hh:mm}
 0.0;                      !- value until time 1

Schedule:Day:Interval,
 Hospital BLDG_OCC_SCH_Sat, !- schedule name
 Fractional,               !- schedule type limits
 No,                       !- interpolate to timestep
 07:00,                    !- time 1 {hh:mm}
 0.0,                      !- value until time 1
 08:00,                    !- time 2 {hh:mm}
 0.1,                      !- value until time 2
 09:00,                    !- time 3 {hh:mm}
 0.3,                      !- value until time 3
 17:00,                    !- time 4 {hh:mm}
 0.4,                      !- value until time 4
 19:00,                    !- time 5 {hh:mm}
 0.1,                      !- value until time 5
 24:00,                    !- time 6 {hh:mm}
 0.0;                      !- value until time 6

Schedule:Day:Interval,
 Hospital BLDG_OCC_SCH_Wkdy, !- schedule name
 Fractional,               !- schedule type limits
 No,                       !- interpolate to timestep