
OS:Version,
  {d7a6d9ca-e4e4-409f-86b6-8200f470f37f}, !- Handle
  3.5.1,                                  !- Version Identifier
  alpha;                                  !- Prerelease Identifier

OS:Building,
  {94ead482-ee31-48b9-a197-3b89e39acf1d}, !- Handle
  Building 1,                             !- Name
  ,                                       !- Building Sector Type
  0,                                      !- North Axis {deg}
  ,                                       !- Nominal Floor to Floor Height {m}
  ,                                       !- Space Type Name
  {1f4b481c-2413-4ae3-9306-dc6d80143722}, !- Default Construction Set Name
  ,                                       !- Default Schedule Set Name
  ,                                       !- Standards Number of Stories
  ,                                       !- Standards Number of Above Ground Stories
  ,                                       !- Standards Template
  MediumOffice;                           !- Standards Building Type

OS:Facility,
  {ceedea08-7c85-4544-9d06-f084b3d3f83a}; !- Handle

OS:Site,
  {d5bfa874-94a5-4607-addc-0db0b02faff3}, !- Handle
  Site 1,                                 !- Name
  ,                                       !- Latitude {deg}
  ,                                       !- Longitude {deg}
  ,                                       !- Time Zone {hr}
  ,                                       !- Elevation {m}
  City;                                   !- Terrain

OS:SimulationControl,
  {3bf15167-54e5-49ae-ac3d-fcadb0f33194}, !- Handle
  Yes,                                    !- Do Zone Sizing Calculation
  Yes,                                    !- Do System Sizing Calculation
  Yes,                                    !- Do Plant Sizing Calculation
  No,                                     !- Run Simulation for Sizing Periods
  Yes,                                    !- Run Simulation for Weather File Run Periods
  ,                                       !- Loads Convergence Tolerance Value {W}
  ,                                       !- Temperature Convergence Tolerance Value {deltaC}
  FullExteriorWithReflections;            !- Solar Distribution

OS:Sizing:Parameters,
  {4e213a1b-643e-48cd-9cd2-fcd4843e3158}, !- Handle
  1.25,                                   !- Heating Sizing Factor
  1.15;                                   !- Cooling Sizing Factor

OS:Timestep,
  {15fbb454-db76-4a42-89ac-30e79901c811}, !- Handle
  6;                                      !- Number of Timesteps per Hour

OS:ShadowCalculation,
  {d6981272-8603-460d-b4eb-dc625b6ebd16}, !- Handle
  PolygonClipping,                        !- Shading Calculation Method
  Periodic,                               !- Shading Calculation Update Frequency Method
  30,                                     !- Shading Calculation Update Frequency
  15000,                                  !- Maximum Figures in Shadow Overlap Calculations
  ,                                       !- Polygon Clipping Algorithm
  512,                                    !- Pixel Counting Resolution
  ,                                       !- Sky Diffuse Modeling Algorithm
  No,                                     !- Output External Shading Calculation Results
  No,                                     !- Disable Self-Shading Within Shading Zone Groups
  No;                                     !- Disable Self-Shading From Shading Zone Groups to Other Zones

OS:HeatBalanceAlgorithm,
  {2f30dd41-5b12-46f1-8324-279a36d64855}, !- Handle
  ConductionTransferFunction,             !- Algorithm
  200;                                    !- Surface Temperature Upper Limit {C}

OS:RunPeriod,
  {25ef8686-ec0b-4386-992f-62ba2560ff07}, !- Handle
  Run Period 1,                           !- Name
  1,                                      !- Begin Month
  1,                                      !- Begin Day of Month
  12,                                     !- End Month
  31,                                     !- End Day of Month
  ,                                       !- Use Weather File Holidays and Special Days
  ,                                       !- Use Weather File Daylight Saving Period
  ,                                       !- Apply Weekend Holiday Rule
  ,                                       !- Use Weather File Rain Indicators
  ,                                       !- Use Weather File Snow Indicators
  ;                                       !- Number of Times Runperiod to be Repeated

OS:LifeCycleCost:Parameters,
  {00f36130-2df6-478e-b706-210f97a0ee57}, !- Handle
  ,                                       !- Analysis Type
  ,                                       !- Discounting Convention
  ,                                       !- Inflation Approach
  ,                                       !- Real Discount Rate
  ,                                       !- Nominal Discount Rate
  ,                                       !- Inflation
  ,                                       !- Base Date Month
  ,                                       !- Base Date Year
  ,                                       !- Service Date Month
  ,                                       !- Service Date Year
  ;                                       !- Length of Study Period in Years

OS:WeatherFile,
  {859b2f96-579a-4bd1-967a-dd83589ea0a6}, !- Handle
  Burbank-Hope AP,                        !- City
  CA,                                     !- State Province Region
  USA,                                    !- Country
  TMY3,                                   !- Data Source
  722880,                                 !- WMO Number
  34.2,                                   !- Latitude {deg}
  -118.35,                                !- Longitude {deg}
  -8,                                     !- Time Zone {hr}
  226,                                    !- Elevation {m}
  C:/Users/chris/AppData/Roaming/ladybug_tools/weather/USA_CA_Burbank-Hope.AP.722880_TMY3/USA_CA_Burbank-Hope.AP.722880_TMY3.epw, !- Url
  0E9DE883,                               !- Checksum
  ,                                       !- Start Date Actual Year
  Sunday;                                 !- Start Day of Week

OS:SizingPeriod:DesignDay,
  {66b60e15-0227-4e0c-a9af-1a00c2bf2882}, !- Handle
  Burbank-Hope AP Ann Htg 99.6% Condns DB, !- Name
  3.8,                                    !- Maximum Dry-Bulb Temperature {C}
  0,                                      !- Daily Dry-Bulb Temperature Range {deltaC}
  98639,                                  !- Barometric Pressure {Pa}
  0.8,                                    !- Wind Speed {m/s}
  350,                                    !- Wind Direction {deg}
  0,                                      !- Sky Clearness
  ,                                       !- Rain Indicator
  ,                                       !- Snow Indicator
  21,                                     !- Day of Month
  12,                                     !- Month
  WinterDesignDay,                        !- Day Type
  ,                                       !- Daylight Saving Time Indicator
  Wetbulb,                                !- Humidity Condition Type
  ,                                       !- Humidity Condition Day Schedule Name
  3.8,                                    !- Wetbulb or DewPoint at Maximum Dry-Bulb {C}
  ,                                       !- Humidity Ratio at Maximum Dry-Bulb {kgWater/kgDryAir}
  ,                                       !- Enthalpy at Maximum Dry-Bulb {J/kg}
  ,                                       !- Dry-Bulb Temperature Range Modifier Type
  ,                                       !- Dry-Bulb Temperature Range Modifier Day Schedule Name
  ASHRAEClearSky;                         !- Solar Model Indicator

OS:SizingPeriod:DesignDay,
  {eb7667ff-e55b-4cb4-8922-010ee7a8f9b5}, !- Handle
  Burbank-Hope AP Ann Hum_n 99.6% Condns DP=>MCDB, !- Name
  16,                                     !- Maximum Dry-Bulb Temperature {C}
  0,                                      !- Daily Dry-Bulb Temperature Range {deltaC}
  98639,                                  !- Barometric Pressure {Pa}
  0.8,                                    !- Wind Speed {m/s}
  350,                                    !- Wind Direction {deg}
  0,                                      !- Sky Clearness
  ,                                       !- Rain Indicator
  ,                                       !- Snow Indicator
  21,                                     !- Day of Month
  12,                                     !- Month
  WinterDesignDay,                        !- Day Type
  ,                                       !- Daylight Saving Time Indicator
  Dewpoint,                               !- Humidity Condition Type
  ,                                       !- Humidity Condition Day Schedule Name
  -14.4,                                  !- Wetbulb or DewPoint at Maximum Dry-Bulb {C}
  ,                                       !- Humidity Ratio at Maximum Dry-Bulb {kgWater/kgDryAir}
  ,                                       !- Enthalpy at Maximum Dry-Bulb {J/kg}
  ,                                       !- Dry-Bulb Temperature Range Modifier Type
  ,                                       !- Dry-Bulb Temperature Range Modifier Day Schedule Name
  ASHRAEClearSky;                         !- Solar Model Indicator

OS:SizingPeriod:DesignDay,
  {ae8b8ba8-cf29-4841-a1ba-e2857ab5b2c3}, !- Handle
  Burbank-Hope AP Ann Htg Wind 99.6% Condns WS=>MCDB, !- Name
  14.9,                                   !- Maximum Dry-Bulb Temperature {C}
  0,                                      !- Daily Dry-Bulb Temperature Range {deltaC}
  98639,                                  !- Barometric Pressure {Pa}
  10.8,                                   !- Wind Speed {m/s}
  350,                                    !- Wind Direction {deg}
  0,                                      !- Sky Clearness
  ,                                       !- Rain Indicator
  ,                                       !- Snow Indicator
  21,                                     !- Day of Month
  12,                                     !- Month
  WinterDesignDay,                        !- Day Type
  ,                                       !- Daylight Saving Time Indicator
  Wetbulb,                                !- Humidity Condition Type
  ,                                       !- Humidity Condition Day Schedule Name
  14.9,                                   !- Wetbulb or DewPoint at Maximum Dry-Bulb {C}
  ,                                       !- Humidity Ratio at Maximum Dry-Bulb {kgWater/kgDryAir}
  ,                                       !- Enthalpy at Maximum Dry-Bulb {J/kg}
  ,                                       !- Dry-Bulb Temperature Range Modifier Type
  ,                                       !- Dry-Bulb Temperature Range Modifier Day Schedule Name
  ASHRAEClearSky;                         !- Solar Model Indicator

OS:SizingPeriod:DesignDay,
  {1db1ccae-1921-4cb9-92ff-b7abf6439040}, !- Handle
  Burbank-Hope AP Ann Clg .4% Condns DB=>MWB, !- Name
  36.4,                                   !- Maximum Dry-Bulb Temperature {C}
  12.9,                                   !- Daily Dry-Bulb Temperature Range {deltaC}
  98639,                                  !- Barometric Pressure {Pa}
  3.8,                                    !- Wind Speed {m/s}
  180,                                    !- Wind Direction {deg}
  ,                                       !- Sky Clearness
  ,                                       !- Rain Indicator
  ,                                       !- Snow Indicator
  21,                                     !- Day of Month
  8,                                      !- Month
  SummerDesignDay,                        !- Day Type
  ,                                       !- Daylight Saving Time Indicator
  Wetbulb,                                !- Humidity Condition Type
  ,                                       !- Humidity Condition Day Schedule Name
  19.9,                                   !- Wetbulb or DewPoint at Maximum Dry-Bulb {C}
  ,                                       !- Humidity Ratio at Maximum Dry-Bulb {kgWater/kgDryAir}
  ,                                       !- Enthalpy at Maximum Dry-Bulb {J/kg}
  ,                                       !- Dry-Bulb Temperature Range Modifier Type
  ,                                       !- Dry-Bulb Temperature Range Modifier Day Schedule Name
  ASHRAETau,                              !- Solar Model Indicator
  ,                                       !- Beam Solar Day Schedule Name
  ,                                       !- Diffuse Solar Day Schedule Name
  0.378,                                  !- ASHRAE Clear Sky Optical Depth for Beam Irradiance {dimensionless}
  2.416;                                  !- ASHRAE Clear Sky Optical Depth for Diffuse Irradiance {dimensionless}

OS:SizingPeriod:DesignDay,
  {ce4a3de5-a28d-4c13-b4a1-7dec88d5fae5}, !- Handle
  Burbank-Hope AP Ann Clg .4% Condns WB=>MDB, !- Name
  32,                                     !- Maximum Dry-Bulb Temperature {C}
  12.9,                                   !- Daily Dry-Bulb Temperature Range {deltaC}
  98639,                                  !- Barometric Pressure {Pa}
  3.8,                                    !- Wind Speed {m/s}
  180,                                    !- Wind Direction {deg}
  ,                                       !- Sky Clearness
  ,                                       !- Rain Indicator
  ,                                       !- Snow Indicator
  21,                                     !- Day of Month
  8,                                      !- Month
  SummerDesignDay,                        !- Day Type
  ,                                       !- Daylight Saving Time Indicator
  Wetbulb,                                !- Humidity Condition Type
  ,                                       !- Humidity Condition Day Schedule Name
  22.6,                                   !- Wetbulb or DewPoint at Maximum Dry-Bulb {C}
  ,                                       !- Humidity Ratio at Maximum Dry-Bulb {kgWater/kgDryAir}
  ,                                       !- Enthalpy at Maximum Dry-Bulb {J/kg}
  ,                                       !- Dry-Bulb Temperature Range Modifier Type
  ,                                       !- Dry-Bulb Temperature Range Modifier Day Schedule Name
  ASHRAETau,                              !- Solar Model Indicator
  ,                                       !- Beam Solar Day Schedule Name
  ,                                       !- Diffuse Solar Day Schedule Name
  0.378,                                  !- ASHRAE Clear Sky Optical Depth for Beam Irradiance {dimensionless}
  2.416;                                  !- ASHRAE Clear Sky Optical Depth for Diffuse Irradiance {dimensionless}

OS:SizingPeriod:DesignDay,
  {ee00311f-7289-4da1-b7a1-250009b3d1cf}, !- Handle
  Burbank-Hope AP Ann Clg .4% Condns DP=>MDB, !- Name
  25.4,                                   !- Maximum Dry-Bulb Temperature {C}
  12.9,                                   !- Daily Dry-Bulb Temperature Range {deltaC}
  98639,                                  !- Barometric Pressure {Pa}
  3.8,                                    !- Wind Speed {m/s}
  180,                                    !- Wind Direction {deg}
  ,                                       !- Sky Clearness
  ,                                       !- Rain Indicator
  ,                                       !- Snow Indicator
  21,                                     !- Day of Month
  8,                                      !- Month
  SummerDesignDay,                        !- Day Type
  ,                                       !- Daylight Saving Time Indicator
  Dewpoint,                               !- Humidity Condition Type
  ,                                       !- Humidity Condition Day Schedule Name
  19.3,                                   !- Wetbulb or DewPoint at Maximum Dry-Bulb {C}
  ,                                       !- Humidity Ratio at Maximum Dry-Bulb {kgWater/kgDryAir}
  ,                                       !- Enthalpy at Maximum Dry-Bulb {J/kg}
  ,                                       !- Dry-Bulb Temperature Range Modifier Type
  ,                                       !- Dry-Bulb Temperature Range Modifier Day Schedule Name
  ASHRAETau,                              !- Solar Model Indicator
  ,                                       !- Beam Solar Day Schedule Name
  ,                                       !- Diffuse Solar Day Schedule Name
  0.378,                                  !- ASHRAE Clear Sky Optical Depth for Beam Irradiance {dimensionless}
  2.416;                                  !- ASHRAE Clear Sky Optical Depth for Diffuse Irradiance {dimensionless}

OS:SizingPeriod:DesignDay,
  {984fa5cf-cd42-4c18-b0cf-8aa73b8c2a98}, !- Handle
  Burbank-Hope AP Ann Clg .4% Condns Enth=>MDB, !- Name
  31.8,                                   !- Maximum Dry-Bulb Temperature {C}
  12.9,                                   !- Daily Dry-Bulb Temperature Range {deltaC}
  98639,                                  !- Barometric Pressure {Pa}
  3.8,                                    !- Wind Speed {m/s}
  180,                                    !- Wind Direction {deg}
  ,                                       !- Sky Clearness
  ,                                       !- Rain Indicator
  ,                                       !- Snow Indicator
  21,                                     !- Day of Month
  8,                                      !- Month
  SummerDesignDay,                        !- Day Type
  ,                                       !- Daylight Saving Time Indicator
  Enthalpy,                               !- Humidity Condition Type
  ,                                       !- Humidity Condition Day Schedule Name
  23,                                     !- Wetbulb or DewPoint at Maximum Dry-Bulb {C}
  ,                                       !- Humidity Ratio at Maximum Dry-Bulb {kgWater/kgDryAir}
  67100,                                  !- Enthalpy at Maximum Dry-Bulb {J/kg}
  ,                                       !- Dry-Bulb Temperature Range Modifier Type
  ,                                       !- Dry-Bulb Temperature Range Modifier Day Schedule Name
  ASHRAETau,                              !- Solar Model Indicator
  ,                                       !- Beam Solar Day Schedule Name
  ,                                       !- Diffuse Solar Day Schedule Name
  0.378,                                  !- ASHRAE Clear Sky Optical Depth for Beam Irradiance {dimensionless}
  2.416;                                  !- ASHRAE Clear Sky Optical Depth for Diffuse Irradiance {dimensionless}

OS:SizingPeriod:DesignDay,
  {fe467785-6130-4185-a703-155742d6f2ff}, !- Handle
  Burbank-Hope AP January .4% Condns DB=>MCWB, !- Name
  28.1,                                   !- Maximum Dry-Bulb Temperature {C}
  11.8,                                   !- Daily Dry-Bulb Temperature Range {deltaC}
  98639,                                  !- Barometric Pressure {Pa}
  2,                                      !- Wind Speed {m/s}
  180,                                    !- Wind Direction {deg}
  ,                                       !- Sky Clearness
  ,                                       !- Rain Indicator
  ,                                       !- Snow Indicator
  21,                                     !- Day of Month
  1,                                      !- Month
  SummerDesignDay,                        !- Day Type
  ,                                       !- Daylight Saving Time Indicator
  Wetbulb,                                !- Humidity Condition Type
  ,                                       !- Humidity Condition Day Schedule Name
  12.6,                                   !- Wetbulb or DewPoint at Maximum Dry-Bulb {C}
  ,                                       !- Humidity Ratio at Maximum Dry-Bulb {kgWater/kgDryAir}
  ,                                       !- Enthalpy at Maximum Dry-Bulb {J/kg}
  ,                                       !- Dry-Bulb Temperature Range Modifier Type
  ,                                       !- Dry-Bulb Temperature Range Modifier Day Schedule Name
  ASHRAETau,                              !- Solar Model Indicator
  ,                                       !- Beam Solar Day Schedule Name
  ,                                       !- Diffuse Solar Day Schedule Name
  0.332,                                  !- ASHRAE Clear Sky Optical Depth for Beam Irradiance {dimensionless}
  2.465;                                  !- ASHRAE Clear Sky Optical Depth for Diffuse Irradiance {dimensionless}

OS:SizingPeriod:DesignDay,
  {ab82bad5-7e0a-46d1-9fa8-6248ff7b9b97}, !- Handle
  Burbank-Hope AP February .4% Condns DB=>MCWB, !- Name
  28.9,                                   !- Maximum Dry-Bulb Temperature {C}
  11,                                     !- Daily Dry-Bulb Temperature Range {deltaC}
  98639,                                  !- Barometric Pressure {Pa}
  2.3,                                    !- Wind Speed {m/s}
  180,                                    !- Wind Direction {deg}
  ,                                       !- Sky Clearness
  ,                                       !- Rain Indicator
  ,                                       !- Snow Indicator
  21,                                     !- Day of Month
  2,                                      !- Month
  SummerDesignDay,                        !- Day Type
  ,                                       !- Daylight Saving Time Indicator
  Wetbulb,                                !- Humidity Condition Type
  ,                                       !- Humidity Condition Day Schedule Name
  14,                                     !- Wetbulb or DewPoint at Maximum Dry-Bulb {C}
  ,                                       !- Humidity Ratio at Maximum Dry-Bulb {kgWater/kgDryAir}
  ,                                       !- Enthalpy at Maximum Dry-Bulb {J/kg}
  ,                                       !- Dry-Bulb Temperature Range Modifier Type
  ,                                       !- Dry-Bulb Temperature Range Modifier Day Schedule Name
  ASHRAETau,                              !- Solar Model Indicator
  ,                                       !- Beam Solar Day Schedule Name
  ,                                       !- Diffuse Solar Day Schedule Name
  0.344,                                  !- ASHRAE Clear Sky Optical Depth for Beam Irradiance {dimensionless}
  2.445;                                  !- ASHRAE Clear Sky Optical Depth for Diffuse Irradiance {dimensionless}

OS:SizingPeriod:DesignDay,
  {896391fe-51e5-4ef4-b1de-0b61114aeafd}, !- Handle
  Burbank-Hope AP March .4% Condns DB=>MCWB, !- Name
  31,                                     !- Maximum Dry-Bulb Temperature {C}
  11,                                     !- Daily Dry-Bulb Temperature Range {deltaC}
  98639,                                  !- Barometric Pressure {Pa}
  2.4,                                    !- Wind Speed {m/s}
  180,                                    !- Wind Direction {deg}
  ,                                       !- Sky Clearness
  ,                                       !- Rain Indicator
  ,                                       !- Snow Indicator
  21,                                     !- Day of Month
  3,                                      !- Month
  SummerDesignDay,                        !- Day Type
  ,                                       !- Daylight Saving Time Indicator
  Wetbulb,                                !- Humidity Condition Type
  ,                                       !- Humidity Condition Day Schedule Name
  14.9,                                   !- Wetbulb or DewPoint at Maximum Dry-Bulb {C}
  ,                                       !- Humidity Ratio at Maximum Dry-Bulb {kgWater/kgDryAir}
  ,                                       !- Enthalpy at Maximum Dry-Bulb {J/kg}
  ,                                       !- Dry-Bulb Temperature Range Modifier Type
  ,                                       !- Dry-Bulb Temperature Range Modifier Day Schedule Name
  ASHRAETau,                              !- Solar Model Indicator
  ,                                       !- Beam Solar Day Schedule Name
  ,                                       !- Diffuse Solar Day Schedule Name
  0.369,                                  !- ASHRAE Clear Sky Optical Depth for Beam Irradiance {dimensionless}
  2.357;                                  !- ASHRAE Clear Sky Optical Depth for Diffuse Irradiance {dimensionless}

OS:SizingPeriod:DesignDay,
  {4d12633e-a1bc-4a1b-8439-ebf3b10e60c0}, !- Handle
  Burbank-Hope AP April .4% Condns DB=>MCWB, !- Name
  33,                                     !- Maximum Dry-Bulb Temperature {C}
  11.1,                                   !- Daily Dry-Bulb Temperature Range {deltaC}
  98639,                                  !- Barometric Pressure {Pa}
  2.8,                                    !- Wind Speed {m/s}
  180,                                    !- Wind Direction {deg}
  ,                                       !- Sky Clearness
  ,                                       !- Rain Indicator
  ,                                       !- Snow Indicator
  21,                                     !- Day of Month
  4,                                      !- Month
  SummerDesignDay,                        !- Day Type
  ,                                       !- Daylight Saving Time Indicator
  Wetbulb,                                !- Humidity Condition Type
  ,                                       !- Humidity Condition Day Schedule Name
  15.5,                                   !- Wetbulb or DewPoint at Maximum Dry-Bulb {C}
  ,                                       !- Humidity Ratio at Maximum Dry-Bulb {kgWater/kgDryAir}
  ,                                       !- Enthalpy at Maximum Dry-Bulb {J/kg}
  ,                                       !- Dry-Bulb Temperature Range Modifier Type
  ,                                       !- Dry-Bulb Temperature Range Modifier Day Schedule Name
  ASHRAETau,                              !- Solar Model Indicator
  ,                                       !- Beam Solar Day Schedule Name
  ,                                       !- Diffuse Solar Day Schedule Name
  0.379,                                  !- ASHRAE Clear Sky Optical Depth for Beam Irradiance {dimensionless}
  2.334;                                  !- ASHRAE Clear Sky Optical Depth for Diffuse Irradiance {dimensionless}

OS:SizingPeriod:DesignDay,
  {38ffed18-08dc-458e-bfad-a96c1899144c}, !- Handle
  Burbank-Hope AP May .4% Condns DB=>MCWB, !- Name
  35.1,                                   !- Maximum Dry-Bulb Temperature {C}
  10.5,                                   !- Daily Dry-Bulb Temperature Range {deltaC}
  98639,                                  !- Barometric Pressure {Pa}
  2.8,                                    !- Wind Speed {m/s}
  180,                                    !- Wind Direction {deg}
  ,                                       !- Sky Clearness
  ,                                       !- Rain Indicator
  ,                                       !- Snow Indicator
  21,                                     !- Day of Month
  5,                                      !- Month
  SummerDesignDay,                        !- Day Type
  ,                                       !- Daylight Saving Time Indicator
  Wetbulb,                                !- Humidity Condition Type
  ,                                       !- Humidity Condition Day Schedule Name
  17.4,                                   !- Wetbulb or DewPoint at Maximum Dry-Bulb {C}
  ,                                       !- Humidity Ratio at Maximum Dry-Bulb {kgWater/kgDryAir}
  ,                                       !- Enthalpy at Maximum Dry-Bulb {J/kg}
  ,                                       !- Dry-Bulb Temperature Range Modifier Type
  ,                                       !- Dry-Bulb Temperature Range Modifier Day Schedule Name
  ASHRAETau,                              !- Solar Model Indicator
  ,                                       !- Beam Solar Day Schedule Name
  ,                                       !- Diffuse Solar Day Schedule Name
  0.381,                                  !- ASHRAE Clear Sky Optical Depth for Beam Irradiance {dimensionless}
  2.361;                                  !- ASHRAE Clear Sky Optical Depth for Diffuse Irradiance {dimensionless}

OS:SizingPeriod:DesignDay,
  {9d153565-0b58-457b-9bd1-89fcc4fdf592}, !- Handle
  Burbank-Hope AP June .4% Condns DB=>MCWB, !- Name
  36.7,                                   !- Maximum Dry-Bulb Temperature {C}
  11,                                     !- Daily Dry-Bulb Temperature Range {deltaC}
  98639,                                  !- Barometric Pressure {Pa}
  2.7,                                    !- Wind Speed {m/s}
  180,                                    !- Wind Direction {deg}
  ,                                       !- Sky Clearness
  ,                                       !- Rain Indicator
  ,                                       !- Snow Indicator
  21,                                     !- Day of Month
  6,                                      !- Month
  SummerDesignDay,                        !- Day Type
  ,                                       !- Daylight Saving Time Indicator
  Wetbulb,                                !- Humidity Condition Type
  ,                                       !- Humidity Condition Day Schedule Name
  19.6,                                   !- Wetbulb or DewPoint at Maximum Dry-Bulb {C}
  ,                                       !- Humidity Ratio at Maximum Dry-Bulb {kgWater/kgDryAir}