
OS:Version,
  {f2a7822f-e9ba-4a5f-aba0-99459f420e77}, !- Handle
  3.1.0;                                  !- Version Identifier

OS:Building,
  {1cff9464-2d09-491c-8c6a-7f12bbeb8392}, !- Handle
  Building 1,                             !- Name
  ,                                       !- Building Sector Type
  0,                                      !- North Axis {deg}
  ,                                       !- Nominal Floor to Floor Height {m}
  ,                                       !- Space Type Name
  {51986e22-c6c0-468c-99a1-abac8835c7db}, !- Default Construction Set Name
  ,                                       !- Default Schedule Set Name
  ,                                       !- Standards Number of Stories
  ,                                       !- Standards Number of Above Ground Stories
  ,                                       !- Standards Template
  MediumOffice;                           !- Standards Building Type

OS:Facility,
  {1379134a-02ca-4dc5-82f7-6cf81fc8375f}; !- Handle

OS:Site,
  {9f1071be-fcda-4cfd-87aa-bed9164ebda0}, !- Handle
  Site 1,                                 !- Name
  ,                                       !- Latitude {deg}
  ,                                       !- Longitude {deg}
  ,                                       !- Time Zone {hr}
  ,                                       !- Elevation {m}
  City;                                   !- Terrain

OS:SimulationControl,
  {c95f4c99-5d8f-4ada-94ba-a6e9bd709d5d}, !- Handle
  Yes,                                    !- Do Zone Sizing Calculation
  Yes,                                    !- Do System Sizing Calculation
  Yes,                                    !- Do Plant Sizing Calculation
  No,                                     !- Run Simulation for Sizing Periods
  Yes,                                    !- Run Simulation for Weather File Run Periods
  ,                                       !- Loads Convergence Tolerance Value {W}
  ,                                       !- Temperature Convergence Tolerance Value {deltaC}
  FullExteriorWithReflections;            !- Solar Distribution

OS:Sizing:Parameters,
  {ecce6568-d65a-490f-9caf-8697d0c8cf1c}, !- Handle
  1.25,                                   !- Heating Sizing Factor
  1.15;                                   !- Cooling Sizing Factor

OS:Timestep,
  {ea861c83-5b7e-4f59-9bf1-2a6b558e4dfb}, !- Handle
  6;                                      !- Number of Timesteps per Hour

OS:ShadowCalculation,
  {2cd4b553-b9fd-425c-b677-05330384649d}, !- Handle
  PolygonClipping,                        !- Shading Calculation Method
  Periodic,                               !- Shading Calculation Update Frequency Method
  30,                                     !- Shading Calculation Update Frequency
  15000,                                  !- Maximum Figures in Shadow Overlap Calculations
  ,                                       !- Polygon Clipping Algorithm
  512,                                    !- Pixel Counting Resolution
  ,                                       !- Sky Diffuse Modeling Algorithm
  No,                                     !- Output External Shading Calculation Results
  No,                                     !- Disable Self-Shading Within Shading Zone Groups
  No;                                     !- Disable Self-Shading From Shading Zone Groups to Other Zones

OS:HeatBalanceAlgorithm,
  {d73a549c-171a-4015-9eaf-76d81acb1c97}, !- Handle
  ConductionTransferFunction,             !- Algorithm
  200;                                    !- Surface Temperature Upper Limit {C}

OS:RunPeriod,
  {8f6beabe-75d9-4970-8108-612b66b92c80}, !- Handle
  Run Period 1,                           !- Name
  1,                                      !- Begin Month
  1,                                      !- Begin Day of Month
  1,                                      !- End Month
  7,                                      !- End Day of Month
  ,                                       !- Use Weather File Holidays and Special Days
  ,                                       !- Use Weather File Daylight Saving Period
  ,                                       !- Apply Weekend Holiday Rule
  ,                                       !- Use Weather File Rain Indicators
  ,                                       !- Use Weather File Snow Indicators
  ;                                       !- Number of Times Runperiod to be Repeated

OS:LifeCycleCost:Parameters,
  {6f2cdae8-559b-4ec0-9a32-5fd23f138f8f}, !- Handle
  ,                                       !- Analysis Type
  ,                                       !- Discounting Convention
  ,                                       !- Inflation Approach
  ,                                       !- Real Discount Rate
  ,                                       !- Nominal Discount Rate
  ,                                       !- Inflation
  ,                                       !- Base Date Month
  ,                                       !- Base Date Year
  ,                                       !- Service Date Month
  ,                                       !- Service Date Year
  ;                                       !- Length of Study Period in Years

OS:WeatherFile,
  {71841ad1-a762-47e2-978f-00ca6b1a6918}, !- Handle
  Boston Logan IntL Arpt,                 !- City
  MA,                                     !- State Province Region
  USA,                                    !- Country
  TMY3,                                   !- Data Source
  725090,                                 !- WMO Number
  42.37,                                  !- Latitude {deg}
  -71.02,                                 !- Longitude {deg}
  -5,                                     !- Time Zone {hr}
  6,                                      !- Elevation {m}
  C:/Users/chris/ladybug_tools/resources/weather/USA_MA_Boston-Logan.Intl.AP.725090_TMY3/USA_MA_Boston-Logan.Intl.AP.725090_TMY3.epw, !- Url
  B65824C3;                               !- Checksum

OS:ScheduleTypeLimits,
  {62dea9ff-e887-4a33-b773-974eaa7b1a37}, !- Handle
  Temperature,                            !- Name
  -273.15,                                !- Lower Limit Value
  ,                                       !- Upper Limit Value
  Continuous,                             !- Numeric Type
  Temperature;                            !- Unit Type

OS:ScheduleTypeLimits,
  {09f52c6f-7265-4a15-b878-18a2a78dc75d}, !- Handle
  Activity Level,                         !- Name
  0,                                      !- Lower Limit Value
  ,                                       !- Upper Limit Value
  Continuous,                             !- Numeric Type
  ActivityLevel;                          !- Unit Type

OS:ScheduleTypeLimits,
  {56de2446-085a-40b4-878a-0e9bea4603ab}, !- Handle
  Fractional,                             !- Name
  0,                                      !- Lower Limit Value
  1,                                      !- Upper Limit Value
  Continuous,                             !- Numeric Type
  Dimensionless;                          !- Unit Type

OS:YearDescription,
  {12aea45d-d30b-4281-9091-3325730dc946}, !- Handle
  ,                                       !- Calendar Year
  Sunday,                                 !- Day of Week for Start Day
  No;                                     !- Is Leap Year

OS:Schedule:Ruleset,
  {b33d7f19-8b19-419f-8c1b-a8e135e61957}, !- Handle
  OfficeLarge BLDG_OCC_SCH,               !- Name
  {56de2446-085a-40b4-878a-0e9bea4603ab}, !- Schedule Type Limits Name
  {a06836e8-56b7-49ea-8097-7b714e526316}, !- Default Day Schedule Name
  {890af726-abf2-4234-934b-bd11ea6638ab}, !- Summer Design Day Schedule Name
  {0c1213ec-1e89-43c1-a904-6a8adc1660e1}; !- Winter Design Day Schedule Name

OS:Schedule:Day,
  {a06836e8-56b7-49ea-8097-7b714e526316}, !- Handle
  OfficeLarge BLDG_OCC_SCH_Default,       !- Name
  {56de2446-085a-40b4-878a-0e9bea4603ab}, !- Schedule Type Limits Name
  ,                                       !- Interpolate to Timestep
  6,                                      !- Hour 1
  0,                                      !- Minute 1
  0,                                      !- Value Until Time 1
  18,                                     !- Hour 2
  0,                                      !- Minute 2
  0.05,                                   !- Value Until Time 2
  24,                                     !- Hour 3
  0,                                      !- Minute 3
  0;                                      !- Value Until Time 3

OS:Schedule:Day,
  {b5cd2289-cd31-4d35-81ac-0649f99711c3}, !- Handle
  OfficeLarge BLDG_OCC_SCH_SmrDsn,        !- Name
  {56de2446-085a-40b4-878a-0e9bea4603ab}, !- Schedule Type Limits Name
  ,                                       !- Interpolate to Timestep
  6,                                      !- Hour 1
  0,                                      !- Minute 1
  0,                                      !- Value Until Time 1
  22,                                     !- Hour 2
  0,                                      !- Minute 2
  1,                                      !- Value Until Time 2
  24,                                     !- Hour 3
  0,                                      !- Minute 3
  0.05;                                   !- Value Until Time 3

OS:Schedule:Day,
  {a516d041-b1e6-465e-b57b-77659868ac39}, !- Handle
  OfficeLarge BLDG_OCC_SCH_WntrDsn,       !- Name
  {56de2446-085a-40b4-878a-0e9bea4603ab}, !- Schedule Type Limits Name
  ,                                       !- Interpolate to Timestep
  24,                                     !- Hour 1
  0,                                      !- Minute 1
  0;                                      !- Value Until Time 1

OS:Schedule:Day,
  {47b662f9-fe28-4dc1-b359-c88960ad2a9e}, !- Handle
  OfficeLarge BLDG_OCC_SCH_Sat,           !- Name
  {56de2446-085a-40b4-878a-0e9bea4603ab}, !- Schedule Type Limits Name
  ,                                       !- Interpolate to Timestep
  6,                                      !- Hour 1
  0,                                      !- Minute 1
  0,                                      !- Value Until Time 1
  8,                                      !- Hour 2
  0,                                      !- Minute 2
  0.1,                                    !- Value Until Time 2
  12,                                     !- Hour 3
  0,                                      !- Minute 3
  0.3,                                    !- Value Until Time 3
  17,                                     !- Hour 4
  0,                                      !- Minute 4
  0.1,                                    !- Value Until Time 4
  19,                                     !- Hour 5
  0,                                      !- Minute 5
  0.05,                                   !- Value Until Time 5
  24,                                     !- Hour 6
  0,                                      !- Minute 6
  0;                                      !- Value Until Time 6

OS:Schedule:Day,
  {b55742b1-968e-43de-b143-130a86822b70}, !- Handle
  OfficeLarge BLDG_OCC_SCH_Wkdy,          !- Name
  {56de2446-085a-40b4-878a-0e9bea4603ab}, !- Schedule Type Limits Name
  ,                                       !- Interpolate to Timestep
  6,                                      !- Hour 1
  0,                                      !- Minute 1
  0,                                      !- Value Until Time 1
  7,                                      !- Hour 2
  0,                                      !- Minute 2
  0.1,                                    !- Value Until Time 2
  8,                                      !- Hour 3
  0,                                      !- Minute 3
  0.2,                                    !- Value Until Time 3
  12,                                     !- Hour 4
  0,                                      !- Minute 4
  0.95,                                   !- Value Until Time 4
  13,                                     !- Hour 5
  0,                                      !- Minute 5
  0.5,                                    !- Value Until Time 5
  17,                                     !- Hour 6
  0,                                      !- Minute 6
  0.95,                                   !- Value Until Time 6
  18,                                     !- Hour 7
  0,                                      !- Minute 7
  0.3,                                    !- Value Until Time 7
  22,                                     !- Hour 8
  0,                                      !- Minute 8
  0.1,                                    !- Value Until Time 8
  24,                                     !- Hour 9
  0,                                      !- Minute 9
  0.05;                                   !- Value Until Time 9

OS:Schedule:Day,
  {890af726-abf2-4234-934b-bd11ea6638ab}, !- Handle
  OfficeLarge BLDG_OCC_SCH_SmrDsn 1,      !- Name
  {56de2446-085a-40b4-878a-0e9bea4603ab}, !- Schedule Type Limits Name
  ,                                       !- Interpolate to Timestep
  6,                                      !- Hour 1
  0,                                      !- Minute 1
  0,                                      !- Value Until Time 1
  22,                                     !- Hour 2
  0,                                      !- Minute 2
  1,                                      !- Value Until Time 2
  24,                                     !- Hour 3
  0,                                      !- Minute 3
  0.05;                                   !- Value Until Time 3

OS:Schedule:Day,
  {0c1213ec-1e89-43c1-a904-6a8adc1660e1}, !- Handle
  OfficeLarge BLDG_OCC_SCH_WntrDsn 1,     !- Name
  {56de2446-085a-40b4-878a-0e9bea4603ab}, !- Schedule Type Limits Name
  ,                                       !- Interpolate to Timestep
  24,                                     !- Hour 1
  0,                                      !- Minute 1
  0;                                      !- Value Until Time 1

OS:Schedule:Rule,
  {b74f9623-aa08-48d9-a21b-5418c375faa0}, !- Handle
  Schedule Rule 1,                        !- Name
  {b33d7f19-8b19-419f-8c1b-a8e135e61957}, !- Schedule Ruleset Name
  0,                                      !- Rule Order
  {50c57fa7-caf0-452a-ad92-13f85be62272}, !- Day Schedule Name
  No,                                     !- Apply Sunday
  No,                                     !- Apply Monday
  No,                                     !- Apply Tuesday
  No,                                     !- Apply Wednesday
  No,                                     !- Apply Thursday
  No,                                     !- Apply Friday
  Yes,                                    !- Apply Saturday
  DateRange,                              !- Date Specification Type
  1,                                      !- Start Month
  1,                                      !- Start Day
  12,                                     !- End Month
  31;                                     !- End Day

OS:Schedule:Day,
  {50c57fa7-caf0-452a-ad92-13f85be62272}, !- Handle
  Schedule Day 1,                         !- Name
  {56de2446-085a-40b4-878a-0e9bea4603ab}, !- Schedule Type Limits Name
  ,                                       !- Interpolate to Timestep
  6,                                      !- Hour 1
  0,                                      !- Minute 1
  0,                                      !- Value Until Time 1
  8,                                      !- Hour 2
  0,                                      !- Minute 2
  0.1,                                    !- Value Until Time 2
  12,                                     !- Hour 3
  0,                                      !- Minute 3
  0.3,                                    !- Value Until Time 3
  17,                                     !- Hour 4
  0,                                      !- Minute 4
  0.1,                                    !- Value Until Time 4
  19,                                     !- Hour 5
  0,                                      !- Minute 5
  0.05,                                   !- Value Until Time 5
  24,                                     !- Hour 6
  0,                                      !- Minute 6
  0;                                      !- Value Until Time 6

OS:Schedule:Rule,
  {5e8b2ec7-5c10-493b-84d7-d9f6ceea091e}, !- Handle
  Schedule Rule 2,                        !- Name
  {b33d7f19-8b19-419f-8c1b-a8e135e61957}, !- Schedule Ruleset Name
  1,                                      !- Rule Order
  {e775850e-926e-4706-b64f-7ed7e05a76d2}, !- Day Schedule Name
  No,                                     !- Apply Sunday
  Yes,                                    !- Apply Monday
  Yes,                                    !- Apply Tuesday
  Yes,                                    !- Apply Wednesday
  Yes,                                    !- Apply Thursday
  Yes,                                    !- Apply Friday
  No,                                     !- Apply Saturday
  DateRange,                              !- Date Specification Type
  1,                                      !- Start Month
  1,                                      !- Start Day
  12,                                     !- End Month
  31;                                     !- End Day

OS:Schedule:Day,
  {e775850e-926e-4706-b64f-7ed7e05a76d2}, !- Handle
  Schedule Day 2,                         !- Name
  {56de2446-085a-40b4-878a-0e9bea4603ab}, !- Schedule Type Limits Name
  ,                                       !- Interpolate to Timestep
  6,                                      !- Hour 1
  0,                                      !- Minute 1
  0,                                      !- Value Until Time 1
  7,                                      !- Hour 2
  0,                                      !- Minute 2
  0.1,                                    !- Value Until Time 2
  8,                                      !- Hour 3
  0,                                      !- Minute 3
  0.2,                                    !- Value Until Time 3
  12,                                     !- Hour 4
  0,                                      !- Minute 4
  0.95,                                   !- Value Until Time 4
  13,                                     !- Hour 5
  0,                                      !- Minute 5
  0.5,                                    !- Value Until Time 5
  17,                                     !- Hour 6
  0,                                      !- Minute 6
  0.95,                                   !- Value Until Time 6
  18,                                     !- Hour 7
  0,                                      !- Minute 7
  0.3,                                    !- Value Until Time 7
  22,                                     !- Hour 8
  0,                                      !- Minute 8
  0.1,                                    !- Value Until Time 8
  24,                                     !- Hour 9
  0,                                      !- Minute 9
  0.05;                                   !- Value Until Time 9

OS:Schedule:Ruleset,
  {284f9599-e5ce-4b41-a208-929c9aced4bb}, !- Handle
  OfficeLarge CLGSETP_SCH_NO_SETBACK,     !- Name
  {62dea9ff-e887-4a33-b773-974eaa7b1a37}, !- Schedule Type Limits Name
  {d10db1a6-980c-4e49-91b4-5f2fa0d0c016}, !- Default Day Schedule Name
  {7502ba24-735e-4b58-ae57-1fab0d1723a5}, !- Summer Design Day Schedule Name
  {9540c329-62e5-4036-bab5-129828ddc522}; !- Winter Design Day Schedule Name

OS:Schedule:Day,
  {d10db1a6-980c-4e49-91b4-5f2fa0d0c016}, !- Handle
  OfficeLarge CLGSETP_SCH_NO_SETBACK_Default, !- Name
  {62dea9ff-e887-4a33-b773-974eaa7b1a37}, !- Schedule Type Limits Name
  ,                                       !- Interpolate to Timestep
  24,                                     !- Hour 1
  0,                                      !- Minute 1
  24;                                     !- Value Until Time 1

OS:Schedule:Day,
  {10190f9c-6cc4-44f9-bfbe-7dd2bbd0f320}, !- Handle
  OfficeLarge CLGSETP_SCH_NO_SETBACK_SmrDsn, !- Name
  {62dea9ff-e887-4a33-b773-974eaa7b1a37}, !- Schedule Type Limits Name
  ,                                       !- Interpolate to Timestep
  5,                                      !- Hour 1
  0,                                      !- Minute 1
  26.7,                                   !- Value Until Time 1
  6,                                      !- Hour 2
  0,                                      !- Minute 2
  25.7,                                   !- Value Until Time 2
  7,                                      !- Hour 3
  0,                                      !- Minute 3
  25,                                     !- Value Until Time 3
  22,                                     !- Hour 4
  0,                                      !- Minute 4
  24,                                     !- Value Until Time 4
  24,                                     !- Hour 5
  0,                                      !- Minute 5
  26.7;                                   !- Value Until Time 5

OS:Schedule:Day,
  {5203445a-fc4e-4f87-ac16-6bed65aab42c}, !- Handle
  OfficeLarge CLGSETP_SCH_NO_SETBACK_WntrDsn, !- Name
  {62dea9ff-e887-4a33-b773-974eaa7b1a37}, !- Schedule Type Limits Name
  ,                                       !- Interpolate to Timestep
  24,                                     !- Hour 1
  0,                                      !- Minute 1
  24;                                     !- Value Until Time 1

OS:Schedule:Day,
  {f69710d1-c478-4dcb-a2f7-88448b650963}, !- Handle
  OfficeLarge CLGSETP_SCH_NO_SETBACK_Sat|Wkdy, !- Name
  {62dea9ff-e887-4a33-b773-974eaa7b1a37}, !- Schedule Type Limits Name
  ,                                       !- Interpolate to Timestep
  24,                                     !- Hour 1
  0,                                      !- Minute 1
  24;                                     !- Value Until Time 1

OS:Schedule:Day,
  {7502ba24-735e-4b58-ae57-1fab0d1723a5}, !- Handle
  OfficeLarge CLGSETP_SCH_NO_SETBACK_SmrDsn 1, !- Name
  {62dea9ff-e887-4a33-b773-974eaa7b1a37}, !- Schedule Type Limits Name
  ,                                       !- Interpolate to Timestep
  5,                                      !- Hour 1
  0,                                      !- Minute 1
  26.7,                                   !- Value Until Time 1
  6,                                      !- Hour 2
  0,                                      !- Minute 2
  25.7,                                   !- Value Until Time 2
  7,                                      !- Hour 3
  0,                                      !- Minute 3
  25,                                     !- Value Until Time 3
  22,                                     !- Hour 4
  0,                                      !- Minute 4
  24,                                     !- Value Until Time 4
  24,                                     !- Hour 5
  0,                                      !- Minute 5
  26.7;                                   !- Value Until Time 5

OS:Schedule:Day,
  {9540c329-62e5-4036-bab5-129828ddc522}, !- Handle
  OfficeLarge CLGSETP_SCH_NO_SETBACK_WntrDsn 1, !- Name
  {62dea9ff-e887-4a33-b773-974eaa7b1a37}, !- Schedule Type Limits Name
  ,                                       !- Interpolate to Timestep
  24,                                     !- Hour 1
  0,                                      !- Minute 1
  24;                                     !- Value Until Time 1

OS:Schedule:Rule,
  {f8336ade-13da-43c4-8419-67efdc71606b}, !- Handle
  Schedule Rule 3,                        !- Name
  {284f9599-e5ce-4b41-a208-929c9aced4bb}, !- Schedule Ruleset Name
  0,                                      !- Rule Order
  {cd213f69-a5d7-48d8-ac24-f4544504a537}, !- Day Schedule Name
  No,                                     !- Apply Sunday
  Yes,                                    !- Apply Monday
  Yes,                                    !- Apply Tuesday
  Yes,                                    !- Apply Wednesday
  Yes,                                    !- Apply Thursday
  Yes,                                    !- Apply Friday
  Yes,                                    !- Apply Saturday
  DateRange,                              !- Date Specification Type
  1,                                      !- Start Month
  1,                                      !- Start Day
  12,                                     !- End Month
  31;                                     !- End Day

OS:Schedule:Day,
  {cd213f69-a5d7-48d8-ac24-f4544504a537}, !- Handle
  Schedule Day 3,                         !- Name
  {62dea9ff-e887-4a33-b773-974eaa7b1a37}, !- Schedule Type Limits Name
  ,                                       !- Interpolate to Timestep
  24,                                     !- Hour 1
  0,                                      !- Minute 1
  24;                                     !- Value Until Time 1

OS:Schedule:Ruleset,
  {ea243c9c-4af7-40e7-8e94-54e3ad2157a1}, !- Handle
  OfficeLarge BLDG_LIGHT_SCH_2013,        !- Name
  {56de2446-085a-40b4-878a-0e9bea4603ab}, !- Schedule Type Limits Name
  {3c4dcf40-025a-4088-a74a-a450033eb11a}, !- Default Day Schedule Name
  {b052f795-4482-4bf8-be1b-6686c3b85b21}, !- Summer Design Day Schedule Name
  {59a1d2e3-00a1-41fb-a008-3675d8250b59}; !- Winter Design Day Schedule Name

OS:Schedule:Day,
  {3c4dcf40-025a-4088-a74a-a450033eb11a}, !- Handle
  OfficeLarge BLDG_LIGHT_SCH_2013_Default, !- Name
  {56de2446-085a-40b4-878a-0e9bea4603ab}, !- Schedule Type Limits Name
  ,                                       !- Interpolate to Timestep
  5,                                      !- Hour 1
  0,                                      !- Minute 1
  0.05,                                   !- Value Until Time 1
  18,                                     !- Hour 2
  0,                                      !- Minute 2
  0.045280057,                            !- Value Until Time 2
  24,                                     !- Hour 3
  0,                                      !- Minute 3
  0.05;                                   !- Value Until Time 3

OS:Schedule:Day,
  {aae8db7a-73b2-4147-a32e-282fa312896b}, !- Handle
  OfficeLarge BLDG_LIGHT_SCH_2013_SmrDsn, !- Name
  {56de2446-085a-40b4-878a-0e9bea4603ab}, !- Schedule Type Limits Name
  ,                                       !- Interpolate to Timestep
  24,                                     !- Hour 1
  0,                                      !- Minute 1
  1;                                      !- Value Until Time 1

OS:Schedule:Day,
  {cc8cd40f-9f9d-4777-86dc-baea28c27840}, !- Handle
  OfficeLarge BLDG_LIGHT_SCH_2013_WntrDsn, !- Name
  {56de2446-085a-40b4-878a-0e9bea4603ab}, !- Schedule Type Limits Name
  ,                                       !- Interpolate to Timestep
  24,                                     !- Hour 1
  0,                                      !- Minute 1
  0;                                      !- Value Until Time 1

OS:Schedule:Day,
  {e9d49c52-b171-4980-8d9f-772caf3bbc82}, !- Handle
  OfficeLarge BLDG_LIGHT_SCH_2013_Sat,    !- Name
  {56de2446-085a-40b4-878a-0e9bea4603ab}, !- Schedule Type Limits Name
  ,                                       !- Interpolate to Timestep
  6,                                      !- Hour 1
  0,                                      !- Minute 1
  0.05,                                   !- Value Until Time 1
  8,                                      !- Hour 2
  0,                                      !- Minute 2
  0.090560114,                            !- Value Until Time 2
  12,                                     !- Hour 3
  0,                                      !- Minute 3
  0.271680342,                            !- Value Until Time 3
  17,                                     !- Hour 4
  0,                                      !- Minute 4
  0.135840171,                            !- Value Until Time 4
  19,                                     !- Hour 5
  0,                                      !- Minute 5
  0.045280057,                            !- Value Until Time 5
  24,                                     !- Hour 6
  0,                                      !- Minute 6
  0.05;                                   !- Value Until Time 6

OS:Schedule:Day,
  {a37aedbd-4007-4be2-829c-067c6f98ec36}, !- Handle
  OfficeLarge BLDG_LIGHT_SCH_2013_Wkdy,   !- Name
  {56de2446-085a-40b4-878a-0e9bea4603ab}, !- Schedule Type Limits Name
  ,                                       !- Interpolate to Timestep
  5,                                      !- Hour 1
  0,                                      !- Minute 1
  0.05,                                   !- Value Until Time 1
  6,                                      !- Hour 2
  0,                                      !- Minute 2
  0.1,                                    !- Value Until Time 2
  7,                                      !- Hour 3
  0,                                      !- Minute 3
  0.090560114,                            !- Value Until Time 3
  8,                                      !- Hour 4
  0,                                      !- Minute 4
  0.271680342,                            !- Value Until Time 4
  17,                                     !- Hour 5
  0,                                      !- Minute 5
  0.815041026,                            !- Value Until Time 5
  18,                                     !- Hour 6
  0,                                      !- Minute 6
  0.45280057,                             !- Value Until Time 6
  20,                                     !- Hour 7
  0,                                      !- Minute 7
  0.271680342,                            !- Value Until Time 7
  22,                                     !- Hour 8
  0,                                      !- Minute 8
  0.181120228,                            !- Value Until Time 8
  23,                                     !- Hour 9